  Page 1                                    Thu Aug 14 22:17:41 2025

  ******************************************************************
  *                           E P A N E T                          *
  *                   Hydraulic and Water Quality                  *
  *                   Analysis for Pipe Networks                   *
  *                         Version 2.2                            *
  ******************************************************************
  
  Analysis begun Thu Aug 14 22:17:41 2025

   
  Hydraulic Status:
  -----------------------------------------------------------------------
     0:00:00: Balanced after 3 trials
     0:00:00: Reservoir R1 is emptying
     0:00:00: PRV PRV1 open
   
     1:00:00: Balanced after 1 trials
   
  Analysis ended Thu Aug 14 22:17:41 2025
